LAMMPS (23 Jun 2022 - Update 1)
Loaded 1 plugins from C:\Users\morga\AppData\Local\LAMMPS 64-bit 23Jun2022\plugins
#### set simulation box #####
units metal                        ## use metal unit system - see lammps manual
boundary p p p
atom_style atomic                  ## default atom style for metals

read_restart restart.equil_NPT     ## read in restart file
Reading restart file ...
  restart file = 23 Jun 2022, LAMMPS = 23 Jun 2022
  restoring atom style atomic from restart
  orthogonal box = (-0.00022001642 -0.00061604599 -0.00022001642) to (17.60022 49.280616 17.60022)
  restoring pair style lj/cut from restart
  1400 atoms
  read_restart CPU = 0.003 seconds

mass 1 1.0

pair_style lj/cut 2.5  ## set interatomic potential style to be EAM
pair_coeff 1 1 7.615119557037 -0.074391647072 2.5

neighbor 0.3 bin ## define parameters for neighbor list
neigh_modify delay 5 ## define parameters for neighbor list

compute c1 all pe/atom                              ### compute potential energy per atom
compute c2 all cna/atom 0.5                       ### compute CNA per atom
compute c3 all stress/atom	NULL                    ### compute stress tensor per atom

thermo 5 ## Output system information every 5 timesteps
#### Output step No., temperature, potential energy, total energy,
#### total pressure, pressure component, box volume
thermo_style custom step temp pe etotal press pxx pyy pzz pxy pxz pyz vol
thermo_modify format float %10.3f ## set output format
timestep 0.000005 ## set timestep size

### system deform by NVT+Deform ###
reset_timestep 0
dump 1a all custom 200 dump_FCCNi_deform_001.atom id type x y z c_c1 c_c2 c_c3[1] c_c3[2] c_c3[3]
#Using NVT to control temperature
fix 1 all nvt temp 600 600 5
#Using "fix deform" to perform tensile test along y direction
fix 2 all deform 1 y erate 0.005 remap x
run  10000	## run the simulation for 10000 steps
Generated 0 of 0 mixed pair_coeff terms from geometric mixing rule
Unused restart file global fix info:
  fix style: npt, fix ID: 1f
  update every 1 steps, delay 5 steps, check yes
Step          Temp          PotEng         TotEng         Press           Pxx            Pyy            Pzz            Pxy            Pxz            Pyz           Volume
0     302.376     -0.161     54.519   3792.025   3853.629   3849.790   3672.657     44.607      4.410    221.782  15266.118
Averages over the last 1001 of 2001 rows, steps 5000 to 10000:
Temp PotEng TotEng Press Pxx Pyy Pzz Pxy Pxz Pyz Volume
307.728 -1.12816 54.5197 3812.26 3884.04 3843.15 3709.59 43.6758 20.1728 170.262 15269
Loop time of 2.09374 on 1 procs for 10000 steps with 1400 atoms

###Write a binary restart file of the current state of the simulation
write_restart restart.deform_NVT
System init for write_restart ...
Generated 0 of 0 mixed pair_coeff terms from geometric mixing rule
