LAMMPS (23 Jun 2022 - Update 1)
Loaded 1 plugins from C:\Users\morga\AppData\Local\LAMMPS 64-bit 23Jun2022\plugins
#### set simulation box #####
units metal ## use metal unit system - see lammps manual
boundary p p p ## make simulation box periodic along all directions
atom_style atomic ## default atom style for metals

## define crystal structure and lattice constant a0
## define direction vectors, i.e., set x=[100], y=[010], z=[001]
lattice fcc 3.52 orient x 1 0 0 orient y 0 1 0 orient z 0 0 1
Lattice spacing in x,y,z = 3.52 3.52 3.52

## region box block 0 24.64 0 24.64 0 24.64 units box ## define box sizes along x, y, z
## The above region command can also be achieve by the one below. Think about why? ###
 region box block 0 5 0 14 0 5
create_box 1 box ## create the simulation box, allowing a max of 2 species
Created orthogonal box = (0 0 0) to (17.6 49.28 17.6)
create_atoms 1 box ## create type-1 metal atoms in the box
Created 1400 atoms

mass 1 1.0

pair_style lj/cut 2.5  ## set interatomic potential style to be EAM
pair_coeff 1 1 7.615119557037 -0.074391647072 2.5

neighbor 0.3 bin ## define parameters for neighbor list
neigh_modify delay 5 ## define parameters for neighbor list

compute c1 all pe/atom ### compute potential energy per atom
compute c2 all cna/atom 0.5 ### compute CNA per atom
compute c3 all stress/atom	NULL ### compute stress tensor per atom

thermo 5 ## Output system information every 5 timesteps
#### Output step No., temperature, potential energy, total energy,
#### total pressure, pressure component, box volume
thermo_style custom step temp pe etotal press pxx pyy pzz pxy pxz pyz vol
thermo_modify format float %10.3f ## set output format
timestep 0.000005 ## set timestep size

### system equilibrium by NPT ensemble to relax the pressure ###
dump 1a all custom 200 dump_FCCNi_Perfect_001.atom id type x y z c_c1 c_c2 c_c3[1] c_c3[2] c_c3[3]
velocity all create 300.0 4928459 mom yes rot yes dist gaussian   ## Assign velocities to all atoms
#fix  1f all nve  ## define a NVE ensemble for the system
#define a NPT ensemble for the system
fix 1f all npt temp 600.0 600.0 0.5 iso 0.0 0.0 5.0
run  10000	## run the simulation for 10000 steps
Generated 0 of 0 mixed pair_coeff terms from geometric mixing rule
  update every 1 steps, delay 5 steps, check yes
Step          Temp          PotEng         TotEng         Press           Pxx            Pyy            Pzz            Pxy            Pxz            Pyz           Volume
0     300.000     -0.000     54.250   3795.966   3880.359   3830.807   3676.731     48.190      5.726    216.592  15264.973
Averages over the last 1001 of 2001 rows, steps 5000 to 10000:
Temp PotEng TotEng Press Pxx Pyy Pzz Pxy Pxz Pyz Volume
300.959 -0.0167403 54.4072 3804.46 3888.44 3840.59 3684.36 48.0672 3.98751 216.803 15265.6
Loop time of 2.78243 on 1 procs for 10000 steps with 1400 atoms

###Write a binary restart file of the current state of the simulation
write_restart restart.equil_NPT
System init for write_restart ...
Generated 0 of 0 mixed pair_coeff terms from geometric mixing rule
undump 1a
unfix 1f	## NPT run complete
