LAMMPS (23 Jun 2022 - Update 1)
Loaded 1 plugins from C:\Users\morga\AppData\Local\LAMMPS 64-bit 23Jun2022\plugins
#### set simulation box #####
units metal                        ## use metal unit system - see lammps manual
boundary p p p
atom_style atomic                  ## default atom style for metals

read_restart restart.equil_NPT     ## read in restart file
Reading restart file ...
  restart file = 23 Jun 2022, LAMMPS = 23 Jun 2022
  restoring atom style atomic from restart
  orthogonal box = (-0.042790004 -0.11981201 -0.042790004) to (17.64279 49.399812 17.64279)
  pair style eam stores no restart info
  1400 atoms
  read_restart CPU = 0.008 seconds

pair_style eam                     ## set interatomic potential style to be EAM
pair_coeff * * Ni_u3.eam
Reading eam potential file Ni_u3.eam with DATE: 2007-06-11

neighbor 0.3 bin ## define parameters for neighbor list
neigh_modify delay 5 ## define parameters for neighbor list

compute c1 all pe/atom                              ### compute potential energy per atom
compute c2 all cna/atom 2.005                       ### compute CNA per atom
compute c3 all stress/atom	NULL                    ### compute stress tensor per atom

thermo 5 ## Output system information every 5 timesteps
#### Output step No., temperature, potential energy, total energy,
#### total pressure, pressure component, box volume
thermo_style custom step temp pe etotal press pxx pyy pzz pxy pxz pyz vol
thermo_modify format float %10.3f ## set output format
timestep 0.005 ## set timestep size

### system deform by NVT+Deform ###
reset_timestep 0
dump 1a all custom 200 dump_FCCNi_deform_001.atom id type x y z c_c1 c_c2 c_c3[1] c_c3[2] c_c3[3]
#Using NVT to control temperature
fix 1 all nvt temp 300 300 5
#Using "fix deform" to perform tensile test along y direction
fix 2 all deform 1 y erate 0.005 remap x
run  50000	## run the simulation for 50000 steps
Unused restart file global fix info:
  fix style: npt, fix ID: 1f
  update every 1 steps, delay 5 steps, check yes
Step          Temp          PotEng         TotEng         Press           Pxx            Pyy            Pzz            Pxy            Pxz            Pyz           Volume
0     296.853  -6172.581  -6118.899  -1499.418  -1410.228  -1154.451  -1933.574    752.942    339.669    595.935  15488.735
Averages over the last 5001 of 10001 rows, steps 25000 to 50000:
Temp PotEng TotEng Press Pxx Pyy Pzz Pxy Pxz Pyz Volume
299.996 -6081.32 -6027.07 -2421.74 -3664.73 -41.482 -3559.01 -1.48621 -1319.73 -7.15583 30009.4
Loop time of 103.442 on 1 procs for 50000 steps with 1400 atoms

###Write a binary restart file of the current state of the simulation
write_restart restart.deform_NVT
System init for write_restart ...
